<?xml version="1.0"?>
<!-- generated on 2017-05-18 13:56:46.145463 by $Id: route2trips.py 23614 2017-03-22 13:02:46Z luecken $ via randomTrips.py
  options: 
-->
<routes xmlns:xsi="http://www.w3.org/2001/XMLSchema-instance" xsi:noNamespaceSchemaLocation="http://sumo.dlr.de/xsd/routes_file.xsd">
    <vType id="passenger" vClass="passenger">
    </vType>
    <trip id="veh0" depart="0.00" departLane="best" from="27758979#11" to="-11296074#6" type="passenger"/>
    <trip id="veh1" depart="0.49" departLane="best" from="-4881665#2" to="-34747854#2" type="passenger"/>
    <trip id="veh2" depart="0.99" departLane="best" from="347274770#4" to="29303490#1" type="passenger"/>
    <trip id="veh3" depart="1.48" departLane="best" from="55795367#1" to="-220233230#2" type="passenger"/>
    <trip id="veh4" depart="1.98" departLane="best" from="10615641#2" to="-11810510#3" type="passenger"/>
    <trip id="veh5" depart="2.47" departLane="best" from="-34697549#3" to="164578773#12" type="passenger"/>
    <trip id="veh6" depart="2.97" departLane="best" from="-11228235#0" to="-30742562" type="passenger"/>
    <trip id="veh8" depart="3.96" departLane="best" from="-347274770#8" to="240718286#8" type="passenger"/>
    <trip id="veh9" depart="4.45" departLane="best" from="428879767#2" to="-10614580#6" type="passenger"/>
    <trip id="veh10" depart="4.95" departLane="best" from="42204371#0" to="30742626#2" type="passenger"/>
    <trip id="veh11" depart="5.44" departLane="best" from="-80286745#0" to="-28091328#4" type="passenger"/>
    <trip id="veh12" depart="5.94" departLane="best" from="8597185#0" to="-80043357#2" type="passenger"/>
    <trip id="veh13" depart="6.43" departLane="best" from="-22358084#4" to="-23017254#0" type="passenger"/>
    <trip id="veh14" depart="6.93" departLane="best" from="4895163#1" to="248164760#2" type="passenger"/>
    <trip id="veh15" depart="7.42" departLane="best" from="422981992" to="34697549#5" type="passenger"/>
    <trip id="veh16" depart="7.92" departLane="best" from="206463409#3" to="89038708#4" type="passenger"/>
    <trip id="veh17" depart="8.41" departLane="best" from="-8677327#3" to="227101507#4" type="passenger"/>
    <trip id="veh18" depart="8.90" departLane="best" from="4842155" to="26461499" type="passenger"/>
    <trip id="veh19" depart="9.40" departLane="best" from="4895778#2" to="236074759#1" type="passenger"/>
    <trip id="veh20" depart="9.89" departLane="best" from="30744214#2" to="-13834706#0" type="passenger"/>
    <trip id="veh21" depart="10.39" departLane="best" from="-34822040#2" to="-4895133#3" type="passenger"/>
    <trip id="veh22" depart="10.88" departLane="best" from="-192573504" to="-34824248#1" type="passenger"/>
    <trip id="veh23" depart="11.38" departLane="best" from="-23300131#1" to="-4881682#3" type="passenger"/>
    <trip id="veh24" depart="11.87" departLane="best" from="27757983" to="-8597149#23" type="passenger"/>
    <trip id="veh26" depart="12.86" departLane="best" from="-45108725#1" to="82329395#3" type="passenger"/>
    <trip id="veh27" depart="13.36" departLane="best" from="28334987#4" to="25453731#1" type="passenger"/>
    <trip id="veh28" depart="13.85" departLane="best" from="-29277302#0" to="34697549#1" type="passenger"/>
    <trip id="veh29" depart="14.35" departLane="best" from="-292188833#0" to="-8733681#3" type="passenger"/>
    <trip id="veh31" depart="15.34" departLane="best" from="229739800#4" to="29334697#1" type="passenger"/>
    <trip id="veh32" depart="15.83" departLane="best" from="4895106#0" to="356844292#1" type="passenger"/>
    <trip id="veh33" depart="16.33" departLane="best" from="-34822076#2" to="-11815751#0" type="passenger"/>
    <trip id="veh34" depart="16.82" departLane="best" from="-5075675#3" to="-4435641#1" type="passenger"/>
    <trip id="veh35" depart="17.32" departLane="best" from="-338305455#0" to="8597134#12" type="passenger"/>
    <trip id="veh36" depart="17.81" departLane="best" from="5011938#3" to="-5061139#2" type="passenger"/>
    <trip id="veh37" depart="18.30" departLane="best" from="28899692#2" to="-9886210" type="passenger"/>
    <trip id="veh39" depart="19.29" departLane="best" from="-443026359" to="-363025535#0" type="passenger"/>
    <trip id="veh40" depart="19.79" departLane="best" from="23017254#0" to="-42772887" type="passenger"/>
    <trip id="veh41" depart="20.28" departLane="best" from="236956879" to="61940836#3" type="passenger"/>
    <trip id="veh42" depart="20.78" departLane="best" from="-9887233#0" to="-34697549#3" type="passenger"/>
    <trip id="veh43" depart="21.27" departLane="best" from="9887199#0" to="165244498#2" type="passenger"/>
    <trip id="veh44" depart="21.77" departLane="best" from="-220257079#1" to="-141088335#0" type="passenger"/>
    <trip id="veh45" depart="22.26" departLane="best" from="-23451218" to="27192657#1" type="passenger"/>
    <trip id="veh46" depart="22.76" departLane="best" from="377968496#3" to="10631172#1" type="passenger"/>
    <trip id="veh48" depart="23.75" departLane="best" from="9886234#0" to="195135288" type="passenger"/>
    <trip id="veh50" depart="24.74" departLane="best" from="-10615636#5" to="338305461#0" type="passenger"/>
    <trip id="veh51" depart="25.23" departLane="best" from="29286225" to="20815846#1" type="passenger"/>
    <trip id="veh53" depart="26.22" departLane="best" from="-23452018" to="11221021#4" type="passenger"/>
    <trip id="veh54" depart="26.71" departLane="best" from="11810944" to="8597182#4" type="passenger"/>
    <trip id="veh55" depart="27.21" departLane="best" from="5011938#0" to="-42774044#3" type="passenger"/>
    <trip id="veh56" depart="27.70" departLane="best" from="154902910" to="-29278630" type="passenger"/>
    <trip id="veh57" depart="28.20" departLane="best" from="80043357#1" to="4999130#1" type="passenger"/>
    <trip id="veh58" depart="28.69" departLane="best" from="-4895778#0" to="28209001#2" type="passenger"/>
    <trip id="veh59" depart="29.19" departLane="best" from="248164760#0" to="-278569833" type="passenger"/>
    <trip id="veh60" depart="29.68" departLane="best" from="35077305#2" to="218422315#1" type="passenger"/>
    <trip id="veh61" depart="30.18" departLane="best" from="35539484" to="198019812#1" type="passenger"/>
    <trip id="veh62" depart="30.67" departLane="best" from="-101381543#4" to="-55924239#4" type="passenger"/>
    <trip id="veh63" depart="31.17" departLane="best" from="-10631482#2" to="8030107#2" type="passenger"/>
    <trip id="veh64" depart="31.66" departLane="best" from="5015343#3" to="488417952#5" type="passenger"/>
    <trip id="veh65" depart="32.16" departLane="best" from="-5011890#1" to="-154608006#0" type="passenger"/>
    <trip id="veh66" depart="32.65" departLane="best" from="5011971" to="8597149#8" type="passenger"/>
    <trip id="veh67" depart="33.15" departLane="best" from="-206565061" to="153967296" type="passenger"/>
    <trip id="veh68" depart="33.64" departLane="best" from="-176942238#0" to="35081420#2" type="passenger"/>
    <trip id="veh69" depart="34.14" departLane="best" from="35081420#0" to="-24522435#1" type="passenger"/>
    <trip id="veh70" depart="34.63" departLane="best" from="14348793" to="22358084#5" type="passenger"/>
    <trip id="veh71" depart="35.13" departLane="best" from="-443263794" to="5011933#2" type="passenger"/>
    <trip id="veh72" depart="35.62" departLane="best" from="10631172#0" to="-33473861#1" type="passenger"/>
    <trip id="veh73" depart="36.11" departLane="best" from="217158871#1" to="347274770#1" type="passenger"/>
    <trip id="veh74" depart="36.61" departLane="best" from="-31134456#0" to="-5020038#2" type="passenger"/>
    <trip id="veh75" depart="37.10" departLane="best" from="9886210" to="29179050#4" type="passenger"/>
    <trip id="veh76" depart="37.60" departLane="best" from="11228235#0" to="176942238#1" type="passenger"/>
    <trip id="veh77" depart="38.09" departLane="best" from="-241010125#4" to="-34748247" type="passenger"/>
    <trip id="veh78" depart="38.59" departLane="best" from="-80286713#4" to="240718286#1" type="passenger"/>
    <trip id="veh79" depart="39.08" departLane="best" from="-34822091#1" to="-347274770#2" type="passenger"/>
    <trip id="veh80" depart="39.58" departLane="best" from="-177042878#2" to="275871558" type="passenger"/>
    <trip id="veh81" depart="40.07" departLane="best" from="-34822076#0" to="79298840" type="passenger"/>
    <trip id="veh82" depart="40.57" departLane="best" from="4895757#1" to="-176942238#2" type="passenger"/>
    <trip id="veh83" depart="41.06" departLane="best" from="-35081420#2" to="29283881" type="passenger"/>
    <trip id="veh84" depart="41.56" departLane="best" from="-34407177#1" to="-25090866#4" type="passenger"/>
    <trip id="veh85" depart="42.05" departLane="best" from="8092459#3" to="23411145#0" type="passenger"/>
    <trip id="veh86" depart="42.55" departLane="best" from="141089926#0" to="377968496#15" type="passenger"/>
    <trip id="veh87" depart="43.04" departLane="best" from="425262597#1" to="-29334428" type="passenger"/>
    <trip id="veh88" depart="43.54" departLane="best" from="-229601088#1" to="10631839#2" type="passenger"/>
    <trip id="veh89" depart="44.03" departLane="best" from="10631174#2" to="13767409#3" type="passenger"/>
    <trip id="veh90" depart="44.52" departLane="best" from="346549944#3" to="29286862#5" type="passenger"/>
    <trip id="veh91" depart="45.02" departLane="best" from="9639681#1" to="-23074430#1" type="passenger"/>
    <trip id="veh92" depart="45.51" departLane="best" from="101357903" to="-80286726#2" type="passenger"/>
    <trip id="veh93" depart="46.01" departLane="best" from="4895778#1" to="-377968496#0" type="passenger"/>
    <trip id="veh94" depart="46.50" departLane="best" from="-29339483#6" to="11760614" type="passenger"/>
    <trip id="veh95" depart="47.00" departLane="best" from="10615641#2" to="-4881703#2" type="passenger"/>
    <trip id="veh96" depart="47.49" departLane="best" from="-377968496#28" to="8029805#3" type="passenger"/>
    <trip id="veh97" depart="47.99" departLane="best" from="11296084#4" to="4895790" type="passenger"/>
    <trip id="veh98" depart="48.48" departLane="best" from="223618450" to="-14348813#0" type="passenger"/>
    <trip id="veh99" depart="48.98" departLane="best" from="99713106#0" to="4895104#4" type="passenger"/>
    <trip id="veh100" depart="49.47" departLane="best" from="8733681#8" to="8030097#2" type="passenger"/>
    <trip id="veh101" depart="49.97" departLane="best" from="4895192" to="-28899692#4" type="passenger"/>
    <trip id="veh102" depart="50.46" departLane="best" from="146982406" to="-338305455#7" type="passenger"/>
    <trip id="veh103" depart="50.96" departLane="best" from="-99713106#0" to="-154613297#1" type="passenger"/>
    <trip id="veh104" depart="51.45" departLane="best" from="-8677416#0" to="9639786#0" type="passenger"/>
    <trip id="veh105" depart="51.95" departLane="best" from="-443265977#0" to="377968496#11" type="passenger"/>
    <trip id="veh106" depart="52.44" departLane="best" from="8597185#1" to="9886196#4" type="passenger"/>
    <trip id="veh107" depart="52.94" departLane="best" from="229130549" to="338305455#10" type="passenger"/>
    <trip id="veh110" depart="54.42" departLane="best" from="219102516#0" to="34824473#0" type="passenger"/>
    <trip id="veh111" depart="54.91" departLane="best" from="-155205086#1" to="236961495#6" type="passenger"/>
    <trip id="veh112" depart="55.41" departLane="best" from="155022873" to="4895541#2" type="passenger"/>
    <trip id="veh113" depart="55.90" departLane="best" from="-28335157#1" to="8677205#2" type="passenger"/>
    <trip id="veh114" depart="56.40" departLane="best" from="240877746#4" to="29301135" type="passenger"/>
    <trip id="veh115" depart="56.89" departLane="best" from="-34826596#0" to="-240877746#9" type="passenger"/>
    <trip id="veh116" depart="57.39" departLane="best" from="55072294" to="-363025535#0" type="passenger"/>
    <trip id="veh117" depart="57.88" departLane="best" from="240877746#0" to="26462216" type="passenger"/>
    <trip id="veh118" depart="58.38" departLane="best" from="10615615#3" to="236961495#13" type="passenger"/>
    <trip id="veh119" depart="58.87" departLane="best" from="184471216" to="8112930#0" type="passenger"/>
    <trip id="veh121" depart="59.86" departLane="best" from="-352524923#1" to="-9886222" type="passenger"/>
    <trip id="veh122" depart="60.36" departLane="best" from="29277138#1" to="-4895778#2" type="passenger"/>
    <trip id="veh123" depart="60.85" departLane="best" from="-53377653#0" to="34826596#0" type="passenger"/>
    <trip id="veh125" depart="61.84" departLane="best" from="9887233#1" to="9886230" type="passenger"/>
    <trip id="veh127" depart="62.83" departLane="best" from="-443265977#0" to="81029346#2" type="passenger"/>
    <trip id="veh128" depart="63.32" departLane="best" from="5020153#8" to="5032512#1" type="passenger"/>
    <trip id="veh129" depart="63.82" departLane="best" from="-8597179#5" to="-28209001#5" type="passenger"/>
    <trip id="veh130" depart="64.31" departLane="best" from="4881682#0" to="31474781#1" type="passenger"/>
    <trip id="veh131" depart="64.81" departLane="best" from="248166807#8" to="9704886#1" type="passenger"/>
    <trip id="veh132" depart="65.30" departLane="best" from="28597194" to="-10615583#7" type="passenger"/>
    <trip id="veh133" depart="65.80" departLane="best" from="4437081#2" to="-4895776" type="passenger"/>
    <trip id="veh134" depart="66.29" departLane="best" from="292188833#2" to="85130388#4" type="passenger"/>
    <trip id="veh135" depart="66.79" departLane="best" from="-26148587#4" to="-237074816" type="passenger"/>
    <trip id="veh136" depart="67.28" departLane="best" from="-23411231#2" to="22893325" type="passenger"/>
    <trip id="veh137" depart="67.78" departLane="best" from="-476421230#1" to="248166807#0" type="passenger"/>
    <trip id="veh138" depart="68.27" departLane="best" from="31749056#0" to="-31477843#1" type="passenger"/>
    <trip id="veh139" depart="68.77" departLane="best" from="27535278#2" to="-435969977" type="passenger"/>
    <trip id="veh140" depart="69.26" departLane="best" from="152011362#3" to="78431992#2" type="passenger"/>
    <trip id="veh141" depart="69.76" departLane="best" from="4895133#6" to="-22893335" type="passenger"/>
    <trip id="veh142" depart="70.25" departLane="best" from="10631174#2" to="-4881566#1" type="passenger"/>
    <trip id="veh143" depart="70.74" departLane="best" from="-10594415#0" to="35356718#1" type="passenger"/>
    <trip id="veh145" depart="71.73" departLane="best" from="34748238#5" to="227101507#2" type="passenger"/>
    <trip id="veh146" depart="72.23" departLane="best" from="10631482#2" to="-10615636#1" type="passenger"/>
    <trip id="veh149" depart="73.71" departLane="best" from="4881703#2" to="236960016" type="passenger"/>
    <trip id="veh150" depart="74.21" departLane="best" from="-27758350#2" to="-24522434#0" type="passenger"/>
    <trip id="veh151" depart="74.70" departLane="best" from="-5011925" to="62252679#1" type="passenger"/>
    <trip id="veh152" depart="75.20" departLane="best" from="38147160#4" to="4895787#2" type="passenger"/>
    <trip id="veh154" depart="76.19" departLane="best" from="-377968496#26" to="-23361151#2" type="passenger"/>
    <trip id="veh155" depart="76.68" departLane="best" from="356844292#1" to="53377653#5" type="passenger"/>
    <trip id="veh157" depart="77.67" departLane="best" from="-28209031#5" to="8030111#0" type="passenger"/>
    <trip id="veh158" depart="78.17" departLane="best" from="4895793#0" to="90583329" type="passenger"/>
    <trip id="veh159" depart="78.66" departLane="best" from="437001402" to="5061173#2" type="passenger"/>
    <trip id="veh160" depart="79.16" departLane="best" from="-11221740#1" to="34764085" type="passenger"/>
    <trip id="veh161" depart="79.65" departLane="best" from="-75660927#18" to="8052891" type="passenger"/>
    <trip id="veh162" depart="80.14" departLane="best" from="409802770" to="4895845#3" type="passenger"/>
    <trip id="veh163" depart="80.64" departLane="best" from="437001402" to="-443263794" type="passenger"/>
    <trip id="veh165" depart="81.63" departLane="best" from="4999098" to="4895778#3" type="passenger"/>
    <trip id="veh166" depart="82.12" departLane="best" from="-34748238#11" to="4583306#3" type="passenger"/>
    <trip id="veh167" depart="82.62" departLane="best" from="119351686#0" to="-491930219" type="passenger"/>
    <trip id="veh168" depart="83.11" departLane="best" from="38147160#0" to="-34766400#1" type="passenger"/>
    <trip id="veh169" depart="83.61" departLane="best" from="-11221021#0" to="-29339483#5" type="passenger"/>
    <trip id="veh170" depart="84.10" departLane="best" from="-61940825#1" to="4895848#0" type="passenger"/>
    <trip id="veh171" depart="84.60" departLane="best" from="8677541#4" to="-4881703#7" type="passenger"/>
    <trip id="veh172" depart="85.09" departLane="best" from="278569834" to="-9887294#3" type="passenger"/>
    <trip id="veh173" depart="85.59" departLane="best" from="9637908#1" to="20783812" type="passenger"/>
    <trip id="veh174" depart="86.08" departLane="best" from="81680974" to="-237074815" type="passenger"/>
    <trip id="veh175" depart="86.58" departLane="best" from="8733939#1" to="-29277303#1" type="passenger"/>
    <trip id="veh176" depart="87.07" departLane="best" from="8677262#2" to="-437858284#3" type="passenger"/>
    <trip id="veh177" depart="87.57" departLane="best" from="-23411260" to="11221021#3" type="passenger"/>
    <trip id="veh178" depart="88.06" departLane="best" from="344716770#0-AddedOffRampEdge" to="-5061133" type="passenger"/>
    <trip id="veh179" depart="88.55" departLane="best" from="245524314#1" to="168205934#8" type="passenger"/>
    <trip id="veh180" depart="89.05" departLane="best" from="-9167893#1" to="23452013#0" type="passenger"/>
    <trip id="veh181" depart="89.54" departLane="best" from="-38147830" to="31637479#2" type="passenger"/>
    <trip id="veh182" depart="90.04" departLane="best" from="-103472535" to="8029814#5" type="passenger"/>
    <trip id="veh183" depart="90.53" departLane="best" from="21077336#2" to="338305455#5" type="passenger"/>
    <trip id="veh184" depart="91.03" departLane="best" from="34748248#0" to="29285740#1" type="passenger"/>
    <trip id="veh186" depart="92.02" departLane="best" from="29222671#0" to="-75660927#12" type="passenger"/>
    <trip id="veh187" depart="92.51" departLane="best" from="-5061139#2" to="4895213#1" type="passenger"/>
    <trip id="veh188" depart="93.01" departLane="best" from="32875018#0" to="-4895778#5" type="passenger"/>
    <trip id="veh189" depart="93.50" departLane="best" from="-5011944#2" to="10492624#3" type="passenger"/>
    <trip id="veh190" depart="94.00" departLane="best" from="101357903" to="-4895592#0" type="passenger"/>
    <trip id="veh191" depart="94.49" departLane="best" from="-24601365#1" to="10615636#9" type="passenger"/>
    <trip id="veh192" depart="94.99" departLane="best" from="82329395#6" to="29303619#1" type="passenger"/>
    <trip id="veh193" depart="95.48" departLane="best" from="75435700#2" to="26201911#19" type="passenger"/>
    <trip id="veh194" depart="95.98" departLane="best" from="-4895845#3" to="220257079#1" type="passenger"/>
    <trip id="veh195" depart="96.47" departLane="best" from="-101381543#2" to="-4895111#0" type="passenger"/>
    <trip id="veh196" depart="96.97" departLane="best" from="10631579#4" to="236955698" type="passenger"/>
    <trip id="veh197" depart="97.46" departLane="best" from="28597219#0" to="127504670#2" type="passenger"/>
    <trip id="veh198" depart="97.95" departLane="best" from="11296074#7" to="-338305455#7" type="passenger"/>
    <trip id="veh199" depart="98.45" departLane="best" from="141499898#1" to="75660927#1" type="passenger"/>
    <trip id="veh200" depart="98.94" departLane="best" from="38147160#3" to="-292188832#0" type="passenger"/>
    <trip id="veh201" depart="99.44" departLane="best" from="-206463409#4" to="175773330" type="passenger"/>
    <trip id="veh202" depart="99.93" departLane="best" from="27322676#0" to="-80043331#0" type="passenger"/>
    <trip id="veh203" depart="100.43" departLane="best" from="449054471#1" to="34826578#4" type="passenger"/>
    <trip id="veh204" depart="100.92" departLane="best" from="29277302#0" to="-34748247" type="passenger"/>
    <trip id="veh205" depart="101.42" departLane="best" from="-30744214#4" to="-11296074#2" type="passenger"/>
    <trip id="veh206" depart="101.91" departLane="best" from="-355644414#1" to="143903358#1" type="passenger"/>
    <trip id="veh207" depart="102.41" departLane="best" from="4895206#1" to="-184471216" type="passenger"/>
    <trip id="veh208" depart="102.90" departLane="best" from="10594417#0" to="275234666" type="passenger"/>
    <trip id="veh209" depart="103.40" departLane="best" from="-30154524" to="305315949#1" type="passenger"/>
    <trip id="veh211" depart="104.39" departLane="best" from="29100901#1" to="-10614580#10" type="passenger"/>
    <trip id="veh212" depart="104.88" departLane="best" from="34824253#8" to="35356278#5" type="passenger"/>
    <trip id="veh213" depart="105.38" departLane="best" from="-23411231#0" to="10631461#4" type="passenger"/>
    <trip id="veh214" depart="105.87" departLane="best" from="-29286776" to="8653329#1" type="passenger"/>
    <trip id="veh215" depart="106.36" departLane="best" from="17355562" to="-14348793" type="passenger"/>
    <trip id="veh216" depart="106.86" departLane="best" from="-377968496#23" to="4895213#3" type="passenger"/>
    <trip id="veh217" depart="107.35" departLane="best" from="11815786#1" to="425262597#0" type="passenger"/>
    <trip id="veh218" depart="107.85" departLane="best" from="29267343" to="9705375" type="passenger"/>
    <trip id="veh219" depart="108.34" departLane="best" from="240877746#7" to="8597175#2" type="passenger"/>
    <trip id="veh220" depart="108.84" departLane="best" from="55527536#7" to="26201842#1" type="passenger"/>
    <trip id="veh221" depart="109.33" departLane="best" from="31959481#1" to="164578773#0" type="passenger"/>
    <trip id="veh222" depart="109.83" departLane="best" from="4863144#0" to="220257079#1" type="passenger"/>
    <trip id="veh223" depart="110.32" departLane="best" from="56465704#2" to="34824164#3" type="passenger"/>
    <trip id="veh224" depart="110.82" departLane="best" from="14348770#4" to="-41376772#0" type="passenger"/>
    <trip id="veh225" depart="111.31" departLane="best" from="-377968496#1" to="28208668#0" type="passenger"/>
    <trip id="veh227" depart="112.30" departLane="best" from="27056983#0" to="-476421230#0" type="passenger"/>
    <trip id="veh228" depart="112.80" departLane="best" from="-188148491#3" to="-4895104#2" type="passenger"/>
    <trip id="veh229" depart="113.29" departLane="best" from="-4688473#0" to="-55527536#6" type="passenger"/>
    <trip id="veh230" depart="113.79" departLane="best" from="218422315#1" to="-264141653#0" type="passenger"/>
    <trip id="veh231" depart="114.28" departLane="best" from="-34824164#0" to="30154525#1" type="passenger"/>
    <trip id="veh232" depart="114.78" departLane="best" from="30744294#4" to="-164578781#0" type="passenger"/>
    <trip id="veh233" depart="115.27" departLane="best" from="10299848#0" to="219103527#1" type="passenger"/>
    <trip id="veh234" depart="115.76" departLane="best" from="10614580#11" to="-31637479#0" type="passenger"/>
    <trip id="veh235" depart="116.26" departLane="best" from="10615615#9" to="78431991#1" type="passenger"/>
    <trip id="veh236" depart="116.75" departLane="best" from="236955691-AddedOnRampEdge" to="304847639#4" type="passenger"/>
    <trip id="veh237" depart="117.25" departLane="best" from="4895592#1" to="352524929#2" type="passenger"/>
    <trip id="veh238" depart="117.74" departLane="best" from="-8733681#5" to="-10614580#2" type="passenger"/>
    <trip id="veh239" depart="118.24" departLane="best" from="-8029815#3" to="34826682#4" type="passenger"/>
    <trip id="veh240" depart="118.73" departLane="best" from="4895521#1" to="8597182#0" type="passenger"/>
    <trip id="veh241" depart="119.23" departLane="best" from="10615615#0" to="34824466" type="passenger"/>
    <trip id="veh242" depart="119.72" departLane="best" from="220214596" to="247290134#5" type="passenger"/>
    <trip id="veh243" depart="120.22" departLane="best" from="-347274770#8" to="-34697549#4" type="passenger"/>
    <trip id="veh244" depart="120.71" departLane="best" from="11221552#3" to="-11810447#0" type="passenger"/>
    <trip id="veh245" depart="121.21" departLane="best" from="-80043347#0" to="29317974#1" type="passenger"/>
    <trip id="veh246" depart="121.70" departLane="best" from="101411426" to="-28597219#0" type="passenger"/>
    <trip id="veh247" depart="122.20" departLane="best" from="129473955#0" to="-24522434#0" type="passenger"/>
    <trip id="veh248" depart="122.69" departLane="best" from="264426455" to="-11296130#1" type="passenger"/>
    <trip id="veh249" depart="123.19" departLane="best" from="-9717217#0" to="23361027#1" type="passenger"/>
    <trip id="veh250" depart="123.68" departLane="best" from="-11228235#3" to="28334987#3" type="passenger"/>
    <trip id="veh252" depart="124.67" departLane="best" from="-14348770#1" to="-8733681#13" type="passenger"/>
    <trip id="veh253" depart="125.16" departLane="best" from="-338305455#13" to="-60037529" type="passenger"/>
    <trip id="veh254" depart="125.66" departLane="best" from="350464826" to="-8733681#13" type="passenger"/>
    <trip id="veh255" depart="126.15" departLane="best" from="34824354#1" to="488417952#5" type="passenger"/>
    <trip id="veh256" depart="126.65" departLane="best" from="-377968496#5" to="-206463409#3" type="passenger"/>
    <trip id="veh257" depart="127.14" departLane="best" from="-10631482#13" to="218422315#1" type="passenger"/>
    <trip id="veh258" depart="127.64" departLane="best" from="99713107" to="-8029815#0" type="passenger"/>
    <trip id="veh259" depart="128.13" departLane="best" from="28335208" to="36338815" type="passenger"/>
    <trip id="veh260" depart="128.63" departLane="best" from="285592566#1" to="34908474" type="passenger"/>
    <trip id="veh261" depart="129.12" departLane="best" from="8597149#9" to="-30744214#3" type="passenger"/>
    <trip id="veh262" depart="129.62" departLane="best" from="-10631482#8" to="-27758979#9" type="passenger"/>
    <trip id="veh263" depart="130.11" departLane="best" from="-24522434#2" to="29283881" type="passenger"/>
    <trip id="veh264" depart="130.61" departLane="best" from="23249018" to="-34697539#2" type="passenger"/>
    <trip id="veh265" depart="131.10" departLane="best" from="30154525#1" to="353252634#1" type="passenger"/>
    <trip id="veh266" depart="131.60" departLane="best" from="-29274865#2" to="25090866#2" type="passenger"/>
    <trip id="veh267" depart="132.09" departLane="best" from="34822076#5" to="-236961495#3" type="passenger"/>
    <trip id="veh268" depart="132.58" departLane="best" from="45108725#0" to="8677381#2" type="passenger"/>
    <trip id="veh269" depart="133.08" departLane="best" from="-23411245" to="-11296084#1" type="passenger"/>
    <trip id="veh270" depart="133.57" departLane="best" from="-5020165#3" to="29303619#1" type="passenger"/>
    <trip id="veh271" depart="134.07" departLane="best" from="8597188" to="-9886234#0" type="passenger"/>
    <trip id="veh273" depart="135.06" departLane="best" from="29329799#0" to="27192657#0" type="passenger"/>
    <trip id="veh274" depart="135.55" departLane="best" from="-23328045#3" to="354043224#0" type="passenger"/>
    <trip id="veh275" depart="136.05" departLane="best" from="4895210#1" to="245524313" type="passenger"/>
    <trip id="veh276" depart="136.54" departLane="best" from="-241010125#4" to="9638806#1" type="passenger"/>
    <trip id="veh277" depart="137.04" departLane="best" from="360446219#0" to="-8029802#6" type="passenger"/>
    <trip id="veh278" depart="137.53" departLane="best" from="10631482#7" to="-8597183#3" type="passenger"/>
    <trip id="veh279" depart="138.03" departLane="best" from="155129555" to="-80286753#2" type="passenger"/>
    <trip id="veh280" depart="138.52" departLane="best" from="4895206#0" to="476421230#1" type="passenger"/>
    <trip id="veh281" depart="139.02" departLane="best" from="-23411120#2" to="8677205#2" type="passenger"/>
    <trip id="veh282" depart="139.51" departLane="best" from="27757969" to="4881703#0" type="passenger"/>
    <trip id="veh283" depart="140.01" departLane="best" from="31134456#0" to="11221251#1" type="passenger"/>
    <trip id="veh284" depart="140.50" departLane="best" from="34697539#0" to="8677541#1" type="passenger"/>
    <trip id="veh285" depart="141.00" departLane="best" from="-4583714" to="440826748#0" type="passenger"/>
    <trip id="veh286" depart="141.49" departLane="best" from="208344986#1" to="153966272" type="passenger"/>
    <trip id="veh287" depart="141.98" departLane="best" from="11221552#1" to="347274770#7" type="passenger"/>
    <trip id="veh288" depart="142.48" departLane="best" from="-456747219#3" to="4895533#0" type="passenger"/>
    <trip id="veh289" depart="142.97" departLane="best" from="4863144#1" to="-220233230#0" type="passenger"/>
    <trip id="veh290" depart="143.47" departLane="best" from="5020171#0" to="-35539484" type="passenger"/>
    <trip id="veh292" depart="144.46" departLane="best" from="-8677416#1" to="-11334079" type="passenger"/>
    <trip id="veh293" depart="144.95" departLane="best" from="4895211#3" to="-29286225" type="passenger"/>
    <trip id="veh294" depart="145.45" departLane="best" from="-338305455#4" to="41549161#0" type="passenger"/>
    <trip id="veh295" depart="145.94" departLane="best" from="-80286745#1" to="5061139#2" type="passenger"/>
    <trip id="veh296" depart="146.44" departLane="best" from="304847639#5" to="-4863169#0" type="passenger"/>